232

Co         0.16803        0.31095        0.11401
O         -1.35496       -0.65406        7.85701
O          5.16500        3.38000        5.07301
N         -0.36298        1.60095        1.54701
N         -0.59798        1.54194       -1.20699
N         -0.50997       -0.22005        5.70001
H         -0.71696       -0.33206        4.70301
N          3.33701        2.29798        4.04901
H          2.91801        2.09598        3.13701
C          1.02003        0.78096        3.47401
C          0.03102        1.60195        2.90001
C         -0.74999        2.56494        3.66201
H         -0.62299        2.75495        4.72701
C         -1.65200        3.13394        2.78701
H         -2.41700        3.87993        2.99501
C         -1.38399        2.57094        1.47101
C         -1.96300        3.04793        0.28001
C         -1.50999        2.59494       -0.97399
C         -1.87200        3.23393       -2.22899
H         -2.53101        4.09593       -2.30899
C         -1.20499        2.56794       -3.23599
H         -1.22099        2.76194       -4.30699
C         -0.46098        1.48795       -2.61199
C          1.44302        1.01696        4.90301
C          0.68403        0.49996        6.00101
C          1.12003        0.71496        7.33701
H          0.52803        0.30896        8.15901
C          2.29902        1.45497        7.56401
H          2.63202        1.61898        8.59601
C          3.06101        1.99198        6.50601
H          3.96901        2.57099        6.68301
C          2.63002        1.77298        5.17001
C         -1.47596       -0.71606        6.59101
C         -2.68296       -1.30607        5.92001
H         -2.78596       -1.10308        4.84601
C         -3.99895       -1.34909        6.73601
H         -4.91896       -1.07510        6.20801
H         -3.91296       -0.98709        7.76601
C         -3.30994       -2.66808        6.39801
C         -3.93093       -3.53809        5.32101
C         -5.26593       -4.00110        5.47001
H         -5.85393       -3.66910        6.33501
C         -5.83792       -4.87810        4.51901
H         -6.86992       -5.22711        4.64801
C         -5.07892       -5.30710        3.40201
H         -5.51891       -5.98910        2.66501
C         -3.74892       -4.84708        3.24301
H         -3.15592       -5.17008        2.37901
C         -3.17993       -3.97208        4.19801
H         -2.14993       -3.61907        4.06601
C         -2.62893       -3.46807        7.51801
H         -3.37393       -4.11808        8.01501
H         -2.17994       -2.79807        8.27101
H         -1.83493       -4.11907        7.10501
C          4.52200        3.04899        4.02501
C          4.95900        3.43500        2.64101
H          4.49801        2.87299        1.81801
C          6.42800        3.86101        2.42201
H          7.04000        3.88902        3.33001
H          6.92000        3.47702        1.52301
C          5.33899        4.92300        2.28801
C          4.95698        5.39800        0.89801
C          3.59698        5.44398        0.49201
H          2.81899        5.07698        1.17401
C          3.23698        5.95198       -0.77799
H          2.18398        5.97597       -1.08099
C          4.23597        6.43099       -1.66099
H          3.95997        6.82399       -2.64599
C          5.59497        6.39300       -1.26399
H          6.37397        6.76601       -1.93999
C          5.95098        5.88101        0.00601
H          7.00398        5.85102        0.31201
C          5.22398        6.00900        3.36801
H          5.91597        6.84001        3.13301
H          5.47398        5.60800        4.36401
H          4.19897        6.42399        3.40101
C         -2.99601        4.13892        0.33101
C         -2.65502        5.42593        0.82001
C         -3.61103        6.47392        0.86101
C         -4.92502        6.19190        0.40401
H         -5.67303        6.98790        0.43301
C         -5.30301        4.91690       -0.09499
C         -4.31500        3.89691       -0.12999
O         -3.58696       -0.54008       -6.72899
O          4.11801        2.08499       -6.25299
N          0.95804       -0.79004       -1.32299
N          1.36204       -0.62004        1.40901
N         -2.04696       -0.36807       -4.94599
H         -1.95396       -0.52307       -3.92999
N          2.47402        1.47197       -4.67799
H          2.30802        1.38197       -3.66999
C          0.19403        0.48395       -3.34499
C          0.78604       -0.62604       -2.71199
C          1.29605       -1.78104       -3.43199
H          1.26905       -1.88504       -4.51499
C          1.76206       -2.67203       -2.48799
H          2.19007       -3.66003       -2.64499
C          1.59205       -2.04903       -1.18399
C          2.11106       -2.57503        0.01401
C          2.04705       -1.83703        1.21501
C          2.76705       -2.21302        2.42401
H          3.39506       -3.09602        2.51501
C          2.51304       -1.24002        3.36901
H          2.87804       -1.17302        4.39301
C          1.61304       -0.27603        2.75601
C          0.21503        0.57095       -4.84699
C         -0.91597        0.16894       -5.62699
C         -0.87297        0.29194       -7.04499
H         -1.74697       -0.00107       -7.62699
C          0.29203        0.79395       -7.66199
H          0.31603        0.87995       -8.75399
C          1.42502        1.18596       -6.91999
H          2.32602        1.57297       -7.39799
C          1.38302        1.07596       -5.50499
C         -3.28596       -0.72508       -5.50399
C         -4.22995       -1.36809       -4.53099
H         -3.76895       -1.70609       -3.59799
C         -5.37395       -2.23410       -5.10799
H         -5.58494       -3.18210       -4.60299
H         -5.43495       -2.24810       -6.20099
C         -5.72896       -0.91910       -4.40999
C         -6.33896       -1.00111       -3.02099
C         -7.62995       -1.57312       -2.85499
H         -8.14695       -1.98913       -3.72899
C         -8.24195       -1.62313       -1.58099
H         -9.23695       -2.07114       -1.46899
C         -7.57096       -1.10012       -0.44799
H         -8.03996       -1.14312        0.54101
C         -6.28396       -0.52811       -0.60299
H         -5.75097       -0.13410        0.27101
C         -5.67596       -0.47510       -1.88099
H         -4.67497       -0.04209       -1.99499
C         -6.24597        0.25489       -5.25299
H         -7.33797        0.15788       -5.40399
H         -5.75197        0.27790       -6.23899
H         -6.05898        1.21689       -4.74099
C          3.74501        1.93399       -5.04599
C          4.63301        2.22300       -3.86799
H          4.12101        2.34899       -2.90599
C          5.89100        3.09401       -4.07599
H          6.06900        3.41401       -5.10799
H          6.10800        3.83301       -3.29899
C          6.07602        1.60801       -3.76699
C          6.53702        1.20801       -2.37599
C          5.75903        0.34001       -1.56399
H          4.78203       -0.00300       -1.92799
C          6.22603       -0.07599       -0.29499
H          5.60904       -0.73800        0.32501
C          7.48603        0.36402        0.17801
H          7.84903        0.04403        1.16201
C          8.27202        1.22503       -0.62699
H          9.25002        1.56804       -0.26699
C          7.80002        1.64203       -1.89299
H          8.40801        2.31503       -2.51299
C          6.58503        0.67801       -4.87899
H          7.69003        0.70302       -4.90999
H          6.19502        0.98801       -5.86399
H          6.27604       -0.36699       -4.68999
C          2.83307       -3.89202        0.01501
C          4.02907       -4.06201       -0.72899
C          4.74108       -5.29000       -0.70599
C          4.21809       -6.34601        0.08801
H          4.75510       -7.29700        0.11901
C          3.02609       -6.21202        0.84701
C          2.34208       -4.96803        0.79801
N         -1.31096       -0.72206        0.30101
O         -2.28296       -1.06207       -1.86299
O         -2.27794       -2.73907       -0.18799
C         -3.38993       -3.42508       -0.85599
H         -4.12193       -3.68909       -0.07299
H         -3.85894       -2.77009       -1.61099
C         -2.92792       -4.72208       -1.54199
Cl        -4.46591       -5.54409       -2.24999
Cl        -1.72392       -4.39907       -2.91599
Cl        -2.14991       -5.90307       -0.32099
C         -1.90995       -1.44407       -0.70499
C         -6.74101        4.61089       -0.59199
C         -3.19304        7.87192        1.39101
C         -7.68002        5.84588       -0.49699
H         -7.31703        6.68888       -1.11499
H         -8.68502        5.56987       -0.86699
H         -7.79303        6.19788        0.54601
C         -4.36605        8.89091        1.37301
H         -5.20805        8.55990        2.01001
H         -4.01506        9.86491        1.76201
H         -4.74905        9.05991        0.34801
C         -2.68704        7.73893        2.86301
H         -3.48804        7.35492        3.52301
H         -1.82303        7.05293        2.94001
H         -2.36705        8.72593        3.24701
C         -2.04005        8.43893        0.50001
H         -1.15504        7.77794        0.50701
H         -2.37305        8.55293       -0.54899
H         -1.72406        9.43193        0.87401
C         -6.68701        4.15489       -2.08499
H         -6.26601        4.95189       -2.72699
H         -6.06700        3.24889       -2.21299
H         -7.70500        3.91788       -2.44799
C         -7.35300        3.46488        0.27501
H         -6.75999        2.53589        0.19901
H         -7.40000        3.75888        1.34001
H         -8.37900        3.23487       -0.06899
C          2.45410       -7.36303        1.71701
C          6.05308       -5.43199       -1.52199
C          1.03011       -7.74104        1.19901
H          0.34210       -6.87705        1.22701
H          1.07311       -8.10204        0.15401
H          0.59711       -8.54304        1.82601
C          3.34011       -8.63902        1.67701
H          4.35911       -8.44501        2.06401
H          2.88512       -9.42102        2.31301
H          3.42612       -9.05002        0.65401
C          2.35310       -6.88803        3.20201
H          3.35110       -6.62802        3.60301
H          1.70209       -6.00103        3.30501
H          1.92711       -7.69303        3.83101
C          6.68010       -6.84899       -1.40199
H          7.60210       -6.89498       -2.00999
H          6.95710       -7.08898       -0.35799
H          5.99510       -7.63399       -1.77299
C          5.75908       -5.15700       -3.03199
H          5.03609       -5.89200       -3.43399
H          5.34407       -4.14600       -3.19199
H          6.69408       -5.23499       -3.61999
C          7.09708       -4.38998       -1.00499
H          6.73207       -3.35199       -1.10999
H          7.32908       -4.56298        0.06401
H          8.03908       -4.47597       -1.58099
H         -4.56499        2.89691       -0.50399
H         -1.62402        5.60494        1.15101
H          1.41208       -4.82604        1.36001
H          4.41306       -3.21601       -1.31199
